/*--------------------------------*- C++ -*----------------------------------*\
| =========                 |                                                 |
| \\      /  F ield         | OpenFOAM: The Open Source CFD Toolbox           |
|  \\    /   O peration     | Version:  2412                                  |
|   \\  /    A nd           | Website:  www.openfoam.com                      |
|    \\/     M anipulation  |                                                 |
\*---------------------------------------------------------------------------*/
FoamFile
{
    version     2.0;
    format      ascii;
    arch        "LSB;label=32;scalar=64";
    class       polyBoundaryMesh;
    location    "constant/polyMesh";
    object      boundary;
}
// * * * * * * * * * * * * * * * * * * * * * * * * * * * * * * * * * * * * * //

6
(
    minX
    {
        type            patch;
        nFaces          1600;
        startFace       793602;
    }
    maxX
    {
        type            patch;
        nFaces          1600;
        startFace       795202;
    }
    minY
    {
        type            patch;
        nFaces          1600;
        startFace       796802;
    }
    maxY
    {
        type            patch;
        nFaces          1600;
        startFace       798402;
    }
    minZ
    {
        type            patch;
        nFaces          1600;
        startFace       800002;
    }
    maxZ
    {
        type            patch;
        nFaces          1600;
        startFace       801602;
    }
)

// ************************************************************************* //
